Version 4
SHEET 1 880 680
WIRE 16 160 -64 160
WIRE 432 160 352 160
WIRE 432 192 432 160
WIRE -64 208 -64 160
WIRE -64 336 -64 288
WIRE 432 336 432 272
FLAG -64 336 0
FLAG 432 336 0
SYMBOL Filter_Model 176 160 R0
SYMATTR InstName HCS_Vin
SYMBOL voltage 432 176 R0
WINDOW 123 0 0 Left 0
WINDOW 39 0 0 Left 0
SYMATTR InstName V2
SYMATTR Value 0
SYMBOL current -64 288 R180
WINDOW 0 24 80 Left 2
WINDOW 3 24 0 Left 2
WINDOW 123 24 -28 Left 2
WINDOW 39 0 0 Left 0
SYMATTR InstName I1
SYMATTR Value ""
SYMATTR Value2 AC 1
TEXT 48 64 Left 2 !.ac dec 1000 1m 100Meg
