Version 4
SHEET 1 880 964
WIRE -1296 -144 -1376 -144
WIRE -928 -144 -1024 -144
WIRE -720 -144 -928 -144
WIRE -464 -144 -528 -144
WIRE -1376 -96 -1376 -144
WIRE -928 -96 -928 -144
WIRE -720 -80 -720 -144
WIRE -384 -80 -384 -144
WIRE -352 -80 -384 -80
WIRE -160 -80 -272 -80
WIRE 320 -80 176 -80
WIRE 320 -32 320 -80
WIRE -720 0 -720 -16
WIRE -1376 64 -1376 -16
WIRE -928 64 -928 -16
WIRE -720 64 -720 0
WIRE 320 96 320 48
FLAG 320 96 0
FLAG -1376 64 0
FLAG -928 64 0
FLAG -1376 -144 HCS_Vin
FLAG -528 -144 0
FLAG -928 -144 HCS_Out
FLAG -720 64 0
SYMBOL voltage 320 -48 R0
WINDOW 123 24 124 Left 2
WINDOW 39 0 0 Left 0
SYMATTR Value2 AC 1
SYMATTR InstName V2
SYMATTR Value 0
SYMBOL Filter_Model 0 -80 R0
SYMATTR InstName Filter
SYMBOL HCS_model -1168 -144 R0
SYMATTR InstName Howland_Current_Source
SYMBOL voltage -1376 -112 R0
WINDOW 123 24 44 Left 2
WINDOW 39 0 0 Left 0
SYMATTR InstName V1
SYMATTR Value SINE(0 2.5 100k)
SYMBOL voltage -928 -112 R0
WINDOW 123 0 0 Left 0
WINDOW 39 0 0 Left 0
SYMATTR InstName V3
SYMATTR Value 0
SYMBOL current -352 -80 R270
WINDOW 0 32 40 VTop 2
WINDOW 3 4 40 VTop 2
WINDOW 123 -60 40 VBottom 2
WINDOW 39 0 0 Left 0
SYMATTR InstName I1
SYMATTR Value 0
SYMBOL voltage -368 -144 R90
WINDOW 0 -32 56 VBottom 2
WINDOW 3 32 56 VTop 2
WINDOW 123 0 0 Left 0
WINDOW 39 0 0 Left 0
SYMATTR InstName V4
SYMATTR Value 5
SYMBOL res -736 -96 R0
SYMATTR InstName R1
SYMATTR Value 1k noiseless
TEXT -152 120 Left 2 !.ac dec 1000 1m 10G
TEXT -152 164 Left 2 !;tran 10u
TEXT -144 200 Left 2 !;noise V(HCS_Out) V1 dec 1000 1m 100Meg
